15
Properties=species:S:1:pos:R:3 free_energy=-81.45962206454492 pbc="F F F"
C       -0.02330000       0.18970000       0.18110000
C        0.12800000       0.26100000      -2.30060000
C       -0.09120000       1.49640000      -0.33320000
C       -0.08760000      -0.21140000       1.57510000
H       -0.22060000       2.40800000       0.28000000
N       -0.11540000       0.72640000       2.54070000
H       -0.02490000       1.71910000       2.30130000
H       -0.21860000       0.48420000       3.53330000
C       -0.00280000       1.53430000      -1.74710000
S        0.14830000      -0.97620000      -1.11150000
N       -0.11750000      -1.51150000       1.92820000
H       -0.16770000      -2.24990000       1.21650000
H       -0.11840000      -1.80810000       2.91160000
H       -0.03150000       2.46010000      -2.34980000
H        0.21860000      -0.01960000      -3.36480000
